ELEMENTS
C
H
O
N
END

SPECIES
H2
CH4
C2H6
C3H8
NC4H10
BENZENE
TOLUENE
XYLENES
NAPHTHALENE
CHD14
C2H4
C3H6
C4H6_1_3
C4H8_1
C4H8_2
C5DIOL_1_4
C5H10_1
C5H10_2
CPD
ME-CPD
STYRENE
ME-INDENE
NAROL-C11
C4H6_1_2
FULVENE
C4H4
CH2*CPENE
C2H2
C3H4_MA
C3H4_PD
H2O
END

THERMO ALL
  300.000  1000.000  5000.000
H2                      H   2               G     300.0    5000.0  1400.0      1
    2.8074577E0   1.0556683E-3  -2.7515471E-7  3.1376499E-11 -1.3183317E-15    2
   -7.5660482E2  -3.3690075E-1    3.5370809E0   -3.547348E-4   6.8090191E-7    3
 -2.2708045E-10  1.9361594E-14   -1.0443898E3    -4.368296E0                   4
CH4                     C   1H   4          G     300.0    5000.0  1400.0      1
    2.7185041E0   8.4695115E-3  -2.8617088E-6  4.4032851E-10 -2.5377322E-14    2
    -1.055762E4    3.7932076E0    2.9152131E0   3.2379533E-3   6.9122082E-6    3
  -5.8427379E-9  1.3320812E-12   -1.0071794E4    4.5571956E0                   4
C2H6                    C   2H   6          G     300.0    5000.0  1400.0      1
    6.1068338E0   1.2923636E-2   -4.425272E-6  6.8739173E-10 -3.9890173E-14    2
   -1.3750001E4   -1.3008125E1  -2.5285436E-2   2.4076475E-2  -1.1189347E-5    3
    2.083409E-9 -5.2986862E-14   -1.1234553E4    2.1164875E1                   4
C3H8                    C   3H   8          G     300.0    5000.0  1400.0      1
    9.3090362E0    1.731994E-2  -5.9200631E-6  9.1854978E-10 -5.3265009E-14    2
   -1.7851112E4   -2.8764905E1  -2.9354676E-1   3.6387025E-2  -1.9504962E-5    3
   4.9590042E-9 -4.5591979E-13   -1.4114888E4    2.4108738E1                   4
NC4H10                  C   4H  10          G     300.0    5000.0  1400.0      1
    1.2505553E1   2.1752439E-2  -7.4338495E-6   1.1533168E-9 -6.6874976E-14    2
    -2.194793E4   -4.4490236E1  -5.9568448E-1   4.8960574E-2  -2.8267027E-5    3
   8.1359806E-9  -9.290981E-13   -1.6993431E4    2.7184521E1                   4
BENZENE                 C   6H   6          G     300.0    5000.0  1400.0      1
    1.3796911E1   1.7546397E-2  -6.1445446E-6  9.6919996E-10 -5.6857431E-14    2
    2.6169189E3   -5.6484546E1   -5.4711168E0   6.4419523E-2  -5.0552646E-5    3
    2.044516E-8 -3.3759134E-12    9.1405584E3    4.6368628E1                   4
TOLUENE                 C   7H   8          G     300.0    5000.0  1400.0      1
    1.6309154E1   2.2533161E-2  -7.8428183E-6   1.2320063E-9 -7.2067504E-14    2
   -2.6624194E3   -6.5981463E1   -4.0898229E0   6.8647737E-2  -4.7471657E-5    3
   1.6700121E-8 -2.3957801E-12     4.594997E3    4.4152773E1                   4
XYLENES                 C   8H  10          G     300.0    5000.0  1400.0      1
    1.4457834E1   3.3037721E-2  -1.1994933E-5   1.9503006E-9 -1.1733691E-13    2
   -5.4099609E3   -5.5841955E1    1.2694643E0   2.5598291E-2   1.0023646E-4    3
   -1.546163E-7  6.4845665E-11    2.3670744E2     2.253192E1                   4
NAPHTHALENE             C  10H   8          G     300.0    5000.0  1400.0      1
    1.0065233E1   4.8775829E-2  -2.4719368E-5   6.0058238E-9 -5.7038846E-13    2
    1.1814232E4   -3.3767311E1   -8.0175877E0   1.0358767E-1  -8.5713771E-5    3
   3.5481992E-8 -5.7811763E-12    1.6495713E4    5.8307056E1                   4
CHD14                   C   6H   8          G     300.0    5000.0  1400.0      1
    1.7688367E1    2.000677E-2  -7.1499688E-6   1.1431455E-9  -6.769538E-14    2
    3.4524204E3   -8.0253808E1   -5.4994782E0   6.8213448E-2   -4.299859E-5    3
   1.2149331E-8 -1.1666669E-12    1.2074443E4    4.6355182E1                   4
C2H4                    C   2H   4          G     300.0    5000.0  1400.0      1
    5.2217637E0    8.961373E-3  -3.0486889E-6  4.7146552E-10 -2.7273959E-14    2
    3.5938314E3   -7.4778923E0   2.3387969E-1   1.9633465E-2  -1.1683321E-5    3
   3.6424645E-9 -4.7744272E-13    5.4548279E3    1.9708423E1                   4
C3H6                    C   3H   6          G     300.0    5000.0  1400.0      1
    8.0159596E0   1.3702363E-2  -4.6624973E-6   7.212544E-10 -4.1737013E-14    2
   -1.8782127E3   -2.0016067E1   3.9461544E-1   2.8910766E-2  -1.5488681E-5    3
   3.8881421E-9 -3.3789035E-13    1.0668816E3    2.1900374E1                   4
C4H6_1_3                C   4H   6          G     300.0    5000.0  1400.0      1
    1.1163379E1   1.3716397E-2  -4.6971578E-6  7.2969384E-10  -4.234862E-14    2
    7.7903977E3   -3.6984795E1   -1.4309512E0   4.7870606E-2   -4.154468E-5    3
   1.9154955E-8 -3.5715851E-12    1.1755131E4    2.9082583E1                   4
C4H8_1                  C   4H   8          G     300.0    5000.0  1400.0      1
    1.1350867E1   1.8061788E-2  -6.1609303E-6  9.5465296E-10 -5.5308964E-14    2
   -5.9787104E3   -3.6436944E1  -8.3137209E-1   4.5258098E-2  -2.9365856E-5    3
   1.0022044E-8 -1.4319168E-12   -1.5787504E3    2.9508424E1                   4
C4H8_2                  C   4H   8          G     300.0    5000.0  1400.0      1
    1.0786438E1   1.8462919E-2  -6.2828949E-6  9.7205219E-10 -5.6257917E-14    2
   -7.3379372E3   -3.4489276E1    6.692136E-1   3.7683994E-2  -1.8568968E-5    3
   3.6957106E-9 -1.0309521E-13   -3.3381934E3    2.1486817E1                   4
C5DIOL_1_4              C   5H   8          G     300.0    5000.0  1400.0      1
    1.4276862E1   1.8815901E-2  -6.5765921E-6    1.035939E-9 -6.0712238E-14    2
    5.3934673E3   -5.3005798E1   -1.7538747E0   5.4837961E-2  -3.7839019E-5    3
   1.3635453E-8 -2.0622153E-12    1.1181998E4    3.3728747E1                   4
C5H10_1                 C   5H  10          G     300.0    5000.0  1400.0      1
    1.4585154E1   2.2407247E-2  -7.6334802E-6   1.1818897E-9 -6.8438514E-14    2
    -1.008982E4   -5.2368394E1   -1.0622348E0   5.7421829E-2  -3.7448689E-5    3
   1.2736499E-8 -1.7960979E-12   -4.4654667E3    3.2273979E1                   4
C5H10_2                 C   5H  10          G     300.0    5000.0  1400.0      1
    1.4110927E1   2.2834827E-2  -7.7862684E-6   1.2062749E-9 -6.9879598E-14    2
   -1.1433651E4   -5.0160116E1  -5.4156055E-1   5.3962992E-2  -3.2350874E-5    3
   9.7741604E-9 -1.1853467E-12   -5.9860617E3    2.9714275E1                   4
CPD                     C   5H   6          G     300.0    5000.0  1400.0      1
    1.1396288E1   1.7813238E-2  -6.9859911E-6   1.1976606E-9 -7.4659782E-14    2
    1.0510737E4   -4.0953249E1    3.8855841E0  -9.5495946E-3   1.2102582E-4    3
  -1.4269893E-7  5.0683662E-11    1.4854736E4    9.5617306E0                   4
ME-CPD                  C   6H   8          G     300.0    5000.0  1400.0      1
    8.3991204E0   3.1531843E-2    -1.31805E-5   2.5534853E-9 -1.8604353E-13    2
    7.5382165E3   -2.1148537E1    1.1662926E0   2.4036815E-2   7.4020525E-5    3
  -1.2439811E-7  5.4535544E-11    1.0254252E4    2.1354795E1                   4
STYRENE                 C   8H   8          G     300.0    5000.0  1400.0      1
    1.9224932E1    2.228326E-2  -7.6859529E-6   1.2001988E-9 -6.9920402E-14    2
    8.1491101E3    -7.980722E1   -4.5674136E0    8.210769E-2  -6.6282311E-5    3
   2.7656439E-8 -4.6789802E-12    1.5975746E4    4.6448079E1                   4
ME-INDENE               C  10H  10          G     300.0    5000.0  1400.0      1
     2.568247E1   4.3348092E-2  -1.5375862E-5   2.4738518E-9 -1.4815945E-13    2
   -2.0125514E4   -1.4092762E2    2.6654613E0   6.2567984E-2   6.6158712E-5    3
  -1.2619238E-7  5.0780629E-11   -1.1915842E4   -1.1762383E1                   4
NAROL-C11               C  11H  12          G     300.0    5000.0  1400.0      1
    2.5268139E1   3.4200979E-2   -1.161829E-5   1.8080532E-9 -1.0566269E-13    2
    8.8959431E3    -1.085716E2    2.3431432E0   5.3345074E-2   6.9587217E-5    3
  -1.2634069E-7  5.0618481E-11    1.7072746E4    2.0077025E1                   4
C4H6_1_2                C   4H   6          G     300.0    5000.0  1400.0      1
    1.0503968E1   1.4124263E-2  -4.8063722E-6  7.4363499E-10 -4.3040037E-14    2
     1.442396E4   -3.1624707E1    1.1314205E0   3.4493916E-2  -2.1441829E-5    3
   6.8419588E-9 -8.9424406E-13    1.7857948E4    1.9296968E1                   4
FULVENE                 C   6H   6          G     300.0    5000.0  1400.0      1
    1.4670289E1   1.6327553E-2  -5.6174764E-6  8.7573772E-10 -5.0959943E-14    2
    1.9019944E4   -5.7516039E1   -4.5272191E0   6.6711983E-2   -5.724278E-5    3
    2.518597E-8 -4.4402773E-12    2.5113472E4    4.3589417E1                   4
C4H4                    C   4H   4          G     300.0    5000.0  1400.0      1
    1.1236776E1   8.8236417E-3   -3.071532E-6  4.8268135E-10 -2.8246765E-14    2
    2.9256687E4   -3.5733637E1  -2.9996814E-2   3.7924232E-2  -3.2506122E-5    3
   1.4232249E-8 -2.5032396E-12    3.2891578E4    2.3791223E1                   4
CH2*CPENE               C   6H   8          G     300.0    5000.0  1400.0      1
    1.3330545E1   2.4243435E-2  -7.6259807E-6   1.1165305E-9 -6.2112475E-14    2
    8.2252541E3   -5.2069068E1    -8.679772E0   8.7035033E-2  -7.6086023E-5    3
      3.4625E-8 -6.2254197E-12    1.4570255E4    6.1831576E1                   4
C2H2                    C   2H   2          G     300.0    5000.0  1400.0      1
    4.9826516E0   4.2599293E-3  -1.3748352E-6  2.0471796E-10 -1.1519174E-14    2
    2.5269712E4   -5.8132139E0    2.0674267E0   1.4656851E-2  -1.5294706E-5    3
   8.3096576E-9 -1.7293217E-12    2.5957859E4    8.6275867E0                   4
C3H4_MA                 C   3H   4          G     300.0    5000.0  1400.0      1
    7.8237597E0    9.400095E-3  -3.3199274E-6  5.2658143E-10 -3.1009284E-14    2
    1.8395873E4   -1.9741098E1    2.3617292E0   1.7114195E-2  -4.7766132E-6    3
  -1.3311134E-9  6.5236798E-13    2.0864554E4    1.1497919E1                   4
C3H4_PD                 C   3H   4          G     300.0    5000.0  1400.0      1
    7.7265683E0   9.3665396E-3  -3.1863344E-6   4.928335E-10 -2.8516632E-14    2
    1.9886347E4   -1.9189105E1   9.0462749E-1   2.5493588E-2  -1.8027797E-5    3
   6.8316481E-9 -1.0851277E-12    2.2256295E4    1.7414221E1                   4
H2O                     H   2O   1          G     300.0    5000.0  1400.0      1
    2.1266431E0   3.9506441E-3  -1.3444592E-6  2.0223366E-10 -1.1283218E-14    2
   -2.9664842E4    9.9413095E0    3.9981565E0  -5.6442678E-4   2.6935286E-6    3
  -1.3882239E-9  2.2229946E-13   -3.0277201E4  -2.1958403E-2                   4

END

TRANSPORT ALL
H2 1 59.7 2.833 0.0 0.0 0.0
CH4 1 264.478 4.226 0.0 0.0 1.0
C2H6 2 300.418 4.786 0.0 0.0 1.0
C3H8 2 311.392 5.134 0.0 0.0 1.0
NC4H10 2 320.653 5.482 0.0 0.0 1.0
BENZENE 1 276.894 4.657 0.0 0.0 1.0
TOLUENE 2 299.911 5.034 0.0 0.0 1.0
XYLENES 2 321.39 5.408 0.0 0.0 1.0
NAPHTHALENE 1 286.531 5.007 0.0 0.0 1.0
CHD14 2 405.606 5.614 0.0 0.0 1.0
C2H4 2 291.56 4.65 0.0 0.0 1.0
C3H6 2 315.442 5.024 0.0 0.0 1.0
C4H6_1_3 2 329.484 5.26 0.0 0.0 1.0
C4H8_1 2 325.036 5.371 0.0 0.0 1.0
C4H8_2 2 336.982 5.395 0.0 0.0 1.0
C5DIOL_1_4 2 337.788 5.608 0.0 0.0 1.0
C5H10_1 2 333.055 5.721 0.0 0.0 1.0
C5H10_2 2 344.62 5.743 0.0 0.0 1.0
CPD 2 383.731 5.307 0.0 0.0 1.0
ME-CPD 2 391.126 5.698 0.0 0.0 1.0
STYRENE 2 317.551 5.278 0.0 0.0 1.0
ME-INDENE 2 375.657 5.842 0.0 0.0 1.0
NAROL-C11 2 395.286 6.131 0.0 0.0 1.0
C4H6_1_2 2 343.318 5.194 0.0 0.0 1.0
FULVENE 2 391.378 5.605 0.0 0.0 1.0
C4H4 2 339.517 4.994 0.0 0.0 1.0
CH2*CPENE 2 390.132 5.691 0.0 0.0 1.0
C2H2 1 281.78 4.319 0.0 0.0 1.0
C3H4_MA 2 324.625 4.76 0.0 0.0 1.0
C3H4_PD 2 321.004 4.825 0.0 0.0 1.0
H2O 2 809.1 2.641 0.0 1.76 4.0
END

REACTIONS
!Rates of formation calculated in UDF
END
