ELEMENTS
C   H   O   N   
END
SPECIES
H2                CH4               C2H6              C3H8              IC4H10            
NC4H10            H2O               CO                CO2               NEOC5             
IC5H12            NC5H12            CPT               ME-CPT            CHX               
BENZENE           TOLUENE           XYLENES           ET-BENZENE        IP-BENZENE        
NAPHTHALENE       ME-NAPHTHALENE    N2                NPAR-C06          NP-BENZENE        
_1ARO-C10         _1ARO-C11         C12iaro           _3ARO-C15         C12naro           
BIPHENYL          PHENANTHRENE      _1.4DIOL-C06      _1.3DIOL-C06      MECY24PD          
MECY14PD          CHD14             ME2-CHD13         ME1-CHD14         ME1-CH2*CPENE4    
ME-FULLVENE       CH2*CHD13         _13C4H6CPD        NDIOL-C07         NDIOL-C08         
C2H4              C3H6              _1.3C4H6          _1C4H8            _2C4H8            
IC4H8             _1.3C5DIOL        _1.4C5DIOL        ISOPRENE          _1C5H10           
_2C5H10           _2M-1C4H8         _3M-1C4H8         _2M-2C4H8         NDIOL-C06         
NOLE-C06          _2OLE-C06         CPTOL             ME-CPTOL          CHXOL             
CPD               ME-CPD            CHXDI             ME-CHXDI          STYRENE           
ALL-BENZENE       AROL-C10          AROL-C11          ME-INDENE         NAROL-C11         
NAROL-C12         NAROL-C13         _1.2C4H6          FULVENE           C4H4              
IOLE-C06          IDIOL-C07         IDIOL-C08         ME3-CPENE         ME4-CPENE         
CH2*CPANE         CH2*CPENE         CPD-CPD           ALL-CPD           _3OLE-C06         
VI-CHXOL          INDENE            ME-CHXOL          C2H2              C3H4_MA           
C3H4_PD           H.                CH3.              C2H3.             C2H5.             
C3H5.             VC3H5-1.          VC3H5-2.          _1C3H7.           _2C3H7.           
_1C4-3.           _1C4-4.           iC4H7.            _1C4H9.           _2C4H9.           
IC4H9.            TC4H9.            NEOC5.            IC5-1.            IC5-2.            
IC5-3.            IC5-4.            NC5-1.            NC5-2.            NC5-3.            
_1C5OL-5.         _1C5OL-4.         _1C5OL-3.         _2C5OL-5.         _2C5OL-4.         
_3M1C4-4.         _3M1C4-3.         _2M1C4-4.         _2M1C4-3.         CPT.              
CPTOL-4.          CPTOL-3.          ISOPRENYL         C5DI-3.           _2M1C4-5.         
C8_Olefinic_radi  _1.4C5-2.         _1.4C5-1.         _1.2.4C5-1.       _1COL-6.          
MECYPE4.          _1COL-5.          CHX.              ME-CHXI.          ME-CHXE.          
ET-CHX.           C2C*C.            C.*CCC            C*C.CC            CC.*CC            
C6_1.4di-3.       C6_1.4di-1.       C6_1.3di-6.       C6_1.5di-3.       C6_1.5di-2.       
MYCPT3.           MECY3PENE.        CYC6H9            ME3-CPENE3.       ME4-CPENE3.       
ME3-CPENE4.       C6_idiol-1.       C6_idiol-2.       C6_idiol-3.       ME1-CPENE4.       
C6_idiol-4.       ME4-CPENE4.       ME1-CPENE5.       CYC6H7            ME.CY13PD         
MEC24PD1.         ME.CY24PD         C*CCCC*CC.        CC*CCC*CC.        ME4-CHEXE5.       
C*C2.CC2*C        ME1-CH2*CPANE1.   ME.-CHD14         ME2-CHD13-6.      ME2.-ME4-CY13PD   
ME13-CY13PD3.     ME1-ME3.-CY13PD   ME1.ME3-CY13PD    ME1-CHD13-5.      VBENZENE.         
ME14CYC6H7.       C5H5C.C*C         C5H4.CC*C         CYC6H5CC.         CPDCPDRAD         
BENZYL            CH3BENZYL         CC*CCCC.          CC*CCC.C          C*CC.CCC          
CC*CC.CC          MECYPE2.          CH2.CYC5          MECYPE1.          C*CCC.CC          
_2C7ol-7.         _1C7ol-3.         _1C7ol-6.         _1C8ol-3.         _1C8ol-6.         
C2H               PHENYL            C3H3.             VC4H5-1.          VC4H5-2.          
CPD.              _1m-napht         _1m-anthr         
END
THERMO ALL
             300 	            1000 	            5000
H2                      C   0H   2O   0N   0G      300.     5000.   1400.      1
 0.28074577E+01 0.10556683E-02-0.27515471E-06 0.31376499E-10-0.13183317E-14    2
-0.75660482E+03-0.33690075E+00 0.35370809E+01-0.35473480E-03 0.68090191E-06    3
-0.22708045E-09 0.19361594E-13-0.10443898E+04-0.43682960E+01                   4
CH4                     C   1H   4O   0N   0G      300.     5000.   1400.      1
 0.27185041E+01 0.84695115E-02-0.28617088E-05 0.44032851E-09-0.25377322E-13    2
-0.10557620E+05 0.37932076E+01 0.29152131E+01 0.32379533E-02 0.69122082E-05    3
-0.58427379E-08 0.13320812E-11-0.10071794E+05 0.45571956E+01                   4
C2H6                    C   2H   6O   0N   0G      300.     5000.   1400.      1
 0.61068338E+01 0.12923636E-01-0.44252720E-05 0.68739173E-09-0.39890173E-13    2
-0.13750001E+05-0.13008125E+02-0.25285436E-01 0.24076475E-01-0.11189347E-04    3
 0.20834090E-08-0.52986862E-13-0.11234553E+05 0.21164875E+02                   4
C3H8                    C   3H   8O   0N   0G      300.     5000.   1400.      1
 0.93090362E+01 0.17319940E-01-0.59200631E-05 0.91854978E-09-0.53265009E-13    2
-0.17851112E+05-0.28764905E+02-0.29354676E+00 0.36387025E-01-0.19504962E-04    3
 0.49590042E-08-0.45591979E-12-0.14114888E+05 0.24108738E+02                   4
IC4H10                  C   4H  10O   0N   0G      300.     5000.   1400.      1
 0.12573311E+02 0.21892642E-01-0.75253835E-05 0.11720550E-08-0.68144668E-13    2
-0.23169675E+05-0.46804426E+02-0.10127751E+01 0.50468318E-01-0.30050207E-04    3
 0.91543558E-08-0.11532668E-11-0.18049570E+05 0.27425687E+02                   4
NC4H10                  C   4H  10O   0N   0G      300.     5000.   1400.      1
 0.12505553E+02 0.21752439E-01-0.74338495E-05 0.11533168E-08-0.66874976E-13    2
-0.21947930E+05-0.44490236E+02-0.59568448E+00 0.48960574E-01-0.28267027E-04    3
 0.81359806E-08-0.92909810E-12-0.16993431E+05 0.27184521E+02                   4
H2O                     C   0H   2O   1N   0G      300.     5000.   1400.      1
 0.21266431E+01 0.39506441E-02-0.13444592E-05 0.20223366E-09-0.11283218E-13    2
-0.29664842E+05 0.99413095E+01 0.39981565E+01-0.56442678E-03 0.26935286E-05    3
-0.13882239E-08 0.22229946E-12-0.30277201E+05-0.21958403E-01                   4
CO                      C   1H   0O   1N   0G      300.     5000.   1400.      1
 0.26900000E+01 0.21200000E-02-0.10500000E-05 0.24600000E-09-0.22300000E-13    2
-0.14100000E+05 0.79700000E+01 0.38200000E+01-0.24100000E-02 0.57500000E-05    3
-0.42900000E-08 0.11100000E-11-0.14400000E+05 0.25000000E+01                   4
CO2                     C   1H   0O   2N   0G      300.     5000.   1400.      1
 0.50800000E+01 0.20500000E-02-0.59400000E-06 0.53900000E-10 0.16600000E-14    2
-0.49200000E+05-0.44800000E+01 0.24500000E+01 0.85500000E-02-0.66100000E-05    3
 0.25300000E-08-0.38000000E-12-0.48400000E+05 0.94800000E+01                   4
NEOC5                   C   5H  12O   0N   0G      300.     5000.   1400.      1
 0.14415624E+02 0.28083346E-01-0.98197912E-05 0.15621421E-08-0.92786212E-13    2
-0.27411790E+05-0.57322149E+02 0.32952644E+01 0.23274618E-01 0.72066889E-04    3
-0.10330727E-06 0.38819044E-10-0.22747638E+05 0.85884802E+01                   4
IC5H12                  C   5H  12O   0N   0G      300.     5000.   1400.      1
 0.12250986E+02 0.30203784E-01-0.10447312E-04 0.16475607E-08-0.97272886E-13    2
-0.24717477E+05-0.40300600E+02 0.33822628E+01 0.24571687E-01 0.60277013E-04    3
-0.87432976E-07 0.32759764E-10-0.20908754E+05 0.12711555E+02                   4
NC5H12                  C   5H  12O   0N   0G      300.     5000.   1400.      1
 0.15725760E+02 0.26108605E-01-0.89097100E-05 0.13810225E-08-0.80029654E-13    2
-0.26051954E+05-0.60336546E+02-0.73676612E+00 0.60720097E-01-0.35759276E-04    3
 0.10490704E-07-0.12148732E-11-0.19893493E+05 0.29535829E+02                   4
CPT                     C   5H  10O   0N   0G      300.     5000.   1400.      1
 0.13025491E+02 0.24838337E-01-0.84409637E-05 0.13051591E-08-0.75518501E-13    2
-0.17209843E+05-0.54309470E+02-0.71845231E+01 0.69730502E-01-0.45346375E-04    3
 0.14562451E-07-0.18144364E-11-0.10015829E+05 0.54958802E+02                   4
ME-CPT                  C   6H  12O   0N   0G      300.     5000.   1400.      1
 0.13390713E+02 0.32320990E-01-0.10775499E-04 0.16504715E-08-0.95277329E-13    2
-0.20335326E+05-0.50343452E+02 0.30496907E+01 0.47982544E-02 0.13486995E-03    3
-0.16571327E-06 0.59486779E-10-0.14856896E+05 0.16682210E+02                   4
CHX                     C   6H  12O   0N   0G      300.     5000.   1400.      1
 0.18813937E+02 0.28526097E-01-0.99309543E-05 0.15608771E-08-0.91358835E-13    2
-0.25875074E+05-0.88089476E+02-0.80264533E+01 0.81998103E-01-0.45663804E-04    3
 0.97307175E-08-0.19333206E-12-0.15753937E+05 0.59131154E+02                   4
BENZENE                 C   6H   6O   0N   0G      300.     5000.   1400.      1
 0.13796911E+02 0.17546397E-01-0.61445446E-05 0.96919996E-09-0.56857431E-13    2
 0.26169189E+04-0.56484546E+02-0.54711168E+01 0.64419523E-01-0.50552646E-04    3
 0.20445160E-07-0.33759134E-11 0.91405584E+04 0.46368628E+02                   4
TOLUENE                 C   7H   8O   0N   0G      300.     5000.   1400.      1
 0.16309154E+02 0.22533161E-01-0.78428183E-05 0.12320063E-08-0.72067504E-13    2
-0.26624194E+04-0.65981463E+02-0.40898229E+01 0.68647737E-01-0.47471657E-04    3
 0.16700121E-07-0.23957801E-11 0.45949970E+04 0.44152773E+02                   4
XYLENES                 C   8H  10O   0N   0G      300.     5000.   1400.      1
 0.14457834E+02 0.33037721E-01-0.11994933E-04 0.19503006E-08-0.11733691E-12    2
-0.54099609E+04-0.55841955E+02 0.12694643E+01 0.25598291E-01 0.10023646E-03    3
-0.15461630E-06 0.64845665E-10 0.23670744E+03 0.22531920E+02                   4
ET-BENZENE              C   8H  10O   0N   0G      300.     5000.   1400.      1
 0.20281672E+02 0.25946408E-01-0.89266706E-05 0.13916116E-08-0.80978628E-13    2
-0.68869584E+04-0.86589258E+02-0.59360008E+01 0.89461842E-01-0.68123051E-04    3
 0.26610373E-07-0.42139810E-11 0.19431750E+04 0.53330954E+02                   4
IP-BENZENE              C   9H  12O   0N   0G      300.     5000.   1400.      1
 0.19698657E+02 0.34525196E-01-0.12041266E-04 0.19096822E-08-0.11311743E-12    2
-0.94495927E+04-0.81032583E+02 0.28888644E+01 0.29624867E-01 0.10459916E-03    3
-0.14943640E-06 0.56302669E-10-0.25164143E+04 0.18010214E+02                   4
NAPHTHALENE             C  10H   8O   0N   0G      300.     5000.   1400.      1
 0.10065233E+02 0.48775829E-01-0.24719368E-04 0.60058238E-08-0.57038846E-12    2
 0.11814232E+05-0.33767311E+02-0.80175877E+01 0.10358767E+00-0.85713771E-04    3
 0.35481992E-07-0.57811763E-11 0.16495713E+05 0.58307056E+02                   4
ME-NAPHTHALENE          C  11H  10O   0N   0G      300.     5000.   1400.      1
 0.19954305E+02 0.36553552E-01-0.12911658E-04 0.20613639E-08-0.12261673E-12    2
 0.41642874E+04-0.83895753E+02 0.29176580E+01 0.32652540E-01 0.10209061E-03    3
-0.14809892E-06 0.55973070E-10 0.11138286E+05 0.16218623E+02                   4
N2                      C   0H   0O   0N   2G      300.     5000.   1400.      1
 0.29959535E+01 0.12365080E-02-0.37030788E-06 0.50534661E-10-0.26298029E-14    2
-0.91327593E+03 0.56804410E+01 0.32602176E+01 0.59131765E-03 0.22404694E-06    3
-0.19557284E-09 0.36187322E-13-0.99992601E+03 0.42747179E+01                   4
NPAR-C06                C   6H  14O   0N   0G      300.     5000.   1400.      1
 0.18963412E+02 0.30448020E-01-0.10379483E-04 0.16077546E-08-0.93126973E-13    2
-0.30162874E+05-0.76283935E+02-0.96960618E+00 0.72908561E-01-0.43885392E-04    3
 0.13231281E-07-0.15843742E-11-0.22780386E+05 0.32306980E+02                   4
NP-BENZENE              C   9H  12O   0N   0G      300.     5000.   1400.      1
 0.19791266E+02 0.34561771E-01-0.12013102E-04 0.19020344E-08-0.11256186E-12    2
 0.13178152E+05-0.78829834E+02 0.28750759E+01 0.33000633E-01 0.95204607E-04    3
-0.14019038E-06 0.53239480E-10 0.19988370E+05 0.20001480E+02                   4
_1ARO-C10               C  10H  14O   0N   0G      300.     5000.   1400.      1
 0.20855563E+02 0.42146944E-01-0.14860912E-04 0.23746838E-08-0.14146543E-12    2
 0.60991077E+04-0.81657468E+02 0.28984083E+01 0.47158238E-01 0.78849440E-04    3
-0.12825628E-06 0.49725013E-10 0.12998276E+05 0.21596723E+02                   4
_1ARO-C11               C  11H  16O   0N   0G      300.     5000.   1400.      1
 0.24361374E+02 0.46533239E-01-0.16415158E-04 0.26257148E-08-0.15653472E-12    2
 0.29337940E+04-0.10160571E+03 0.26763517E+01 0.52051693E-01 0.98356761E-04    3
-0.15673947E-06 0.60603305E-10 0.11291610E+05 0.23216475E+02                   4
C12iaro                 C  12H  18O   0N   0G      300.     5000.   1400.      1
 0.26708723E+02 0.51202988E-01-0.18126454E-04 0.29067545E-08-0.17360127E-12    2
-0.20742095E+05-0.11299221E+03 0.25585206E+01 0.60670638E-01 0.99677673E-04    3
-0.16451015E-06 0.64121743E-10-0.11598602E+05 0.25193564E+02                   4
_3ARO-C15               C  15H  12O   0N   0G      300.     5000.   1400.      1
 0.26804713E+02 0.47099381E-01-0.16750013E-04 0.26861928E-08-0.16028662E-12    2
 0.80206835E+04-0.12101687E+03 0.25045747E+01 0.54577855E-01 0.10795998E-03    3
-0.17197537E-06 0.66612954E-10 0.17322329E+05 0.18536277E+02                   4
C12naro                 C  12H  16O   0N   0G      300.     5000.   1400.      1
 0.27834904E+02 0.46093970E-01-0.16629078E-04 0.27071959E-08-0.16342162E-12    2
-0.17066298E+05-0.13644637E+03 0.26736454E+01 0.60844816E-01 0.91373432E-04    3
-0.15691175E-06 0.61863438E-10-0.77819352E+04 0.63089483E+01                   4
BIPHENYL                C  12H  10O   0N   0G      300.     5000.   1400.      1
 0.22896362E+02 0.36845319E-01-0.13501636E-04 0.22080279E-08-0.13335814E-12    2
 0.10739592E+05-0.10050957E+03 0.19460006E+00 0.53525989E-01 0.85500084E-04    3
-0.16390353E-06 0.72997567E-10 0.19002149E+05 0.27214899E+02                   4
PHENANTHRENE            C  14H  10O   0N   0G      300.     5000.   1400.      1
 0.25743615E+02 0.39940872E-01-0.13912245E-04 0.21959411E-08-0.12949286E-12    2
 0.12641532E+05-0.11820014E+03 0.23800286E+01 0.42061571E-01 0.12127570E-03    3
-0.18109453E-06 0.69215931E-10 0.21835653E+05 0.17235588E+02                   4
_1.4DIOL-C06            C   6H  10O   0N   0G      300.     5000.   1400.      1
 0.16946681E+02 0.23740175E-01-0.82693546E-05 0.12995765E-08-0.76039779E-13    2
-0.24411891E+02-0.65522885E+02-0.13974695E+01 0.63392100E-01-0.40781479E-04    3
 0.13464937E-07-0.18501097E-11 0.67610199E+04 0.34292129E+02                   4
_1.3DIOL-C06            C   6H  10O   0N   0G      300.     5000.   1400.      1
 0.15811366E+02 0.24194868E-01-0.82827618E-05 0.13070062E-08-0.77316209E-13    2
-0.30920973E+02-0.57919623E+02 0.26439824E+01 0.30635454E-01 0.52092671E-04    3
-0.86099537E-07 0.33680598E-10 0.48910787E+04 0.17105176E+02                   4
MECY24PD                C   6H   8O   0N   0G      300.     5000.   1400.      1
 0.11915511E+02 0.24645750E-01-0.89804964E-05 0.16820333E-08-0.12299672E-12    2
 0.70415577E+04-0.41569503E+02 0.20583916E+01 0.26234925E-01 0.50269049E-04    3
-0.82362385E-07 0.32942719E-10 0.10752231E+05 0.15055525E+02                   4
MECY14PD                C   6H   8O   0N   0G      300.     5000.   1400.      1
 0.83991203E+01 0.31531843E-01-0.13180501E-04 0.25534854E-08-0.18604353E-12    2
 0.77143432E+04-0.21304535E+02 0.11662926E+01 0.24036814E-01 0.74020527E-04    3
-0.12439811E-06 0.54535544E-10 0.10430378E+05 0.21198797E+02                   4
CHD14                   C   6H   8O   0N   0G      300.     5000.   1400.      1
 0.17688367E+02 0.20006770E-01-0.71499688E-05 0.11431455E-08-0.67695380E-13    2
 0.34524204E+04-0.80253808E+02-0.54994782E+01 0.68213448E-01-0.42998590E-04    3
 0.12149331E-07-0.11666669E-11 0.12074443E+05 0.46355182E+02                   4
ME2-CHD13               C   7H  10O   0N   0G      300.     5000.   1400.      1
 0.10092058E+02 0.37899978E-01-0.15450965E-04 0.29444992E-08-0.21207796E-12    2
 0.28724884E+04-0.30709290E+02 0.12577453E+01 0.33067178E-01 0.64654363E-04    3
-0.10871028E-06 0.45047506E-10 0.62841681E+04 0.21000464E+02                   4
ME1-CHD14               C   7H  10O   0N   0G      300.     5000.   1400.      1
 0.10670126E+02 0.36893887E-01-0.14797664E-04 0.28044826E-08-0.20169353E-12    2
 0.30928473E+04-0.31131799E+02 0.15222582E+01 0.32563627E-01 0.61222526E-04    3
-0.10018344E-06 0.40255603E-10 0.67214742E+04 0.22594753E+02                   4
ME1-CH2*CPENE4          C   7H  10O   0N   0G      300.     5000.   1400.      1
 0.20187985E+02 0.24987449E-01-0.88400767E-05 0.14038564E-08-0.82744228E-13    2
 0.13768397E+03-0.89535314E+02-0.66221538E+01 0.86479057E-01-0.63273883E-04    3
 0.23699463E-07-0.36616692E-11 0.96360315E+04 0.54984588E+02                   4
ME-FULLVENE             C   7H   8O   0N   0G      300.     5000.   1400.      1
 0.18709189E+02 0.20763619E-01-0.72938720E-05 0.11528750E-08-0.67730021E-13    2
 0.79714441E+04-0.82263577E+02-0.49369656E+01 0.78911606E-01-0.63269062E-04    3
 0.26187626E-07-0.44242006E-11 0.15932378E+05 0.43768586E+02                   4
CH2*CHD13               C   7H   8O   0N   0G      300.     5000.   1400.      1
 0.19639306E+02 0.20496222E-01-0.72245182E-05 0.11445299E-08-0.67347555E-13    2
 0.12182900E+05-0.87357849E+02-0.74856540E+01 0.90743022E-01-0.78862364E-04    3
 0.35021454E-07-0.62520384E-11 0.20957929E+05 0.55954817E+02                   4
_13C4H6CPD              C   8H   8O   0N   0G      300.     5000.   1400.      1
 0.19112409E+02 0.22357346E-01-0.77998164E-05 0.12270950E-08-0.71853216E-13    2
 0.23481147E+05-0.78113574E+02-0.71155966E+01 0.93848412E-01-0.85380661E-04    3
 0.40261273E-07-0.75949939E-11 0.31703589E+05 0.59351789E+02                   4
NDIOL-C07               C   7H  12O   0N   0G      300.     5000.   1400.      1
 0.19508001E+02 0.27754867E-01-0.94297675E-05 0.14575874E-08-0.84312616E-13    2
-0.37250575E+04-0.75147042E+02-0.14437643E+01 0.75565392E-01-0.51052095E-04    3
 0.17967149E-07-0.26092601E-11 0.36838508E+04 0.37811687E+02                   4
NDIOL-C08               C   8H  14O   0N   0G      300.     5000.   1400.      1
 0.22295421E+02 0.32500211E-01-0.11044984E-04 0.17076022E-08-0.98789548E-13    2
-0.91926080E+04-0.89719333E+02-0.11843589E+01 0.84425185E-01-0.54260484E-04    3
 0.17853952E-07-0.23922599E-11-0.71955854E+03 0.37463912E+02                   4
C2H4                    C   2H   4O   0N   0G      300.     5000.   1400.      1
 0.52217637E+01 0.89613730E-02-0.30486889E-05 0.47146552E-09-0.27273959E-13    2
 0.35938314E+04-0.74778923E+01 0.23387969E+00 0.19633465E-01-0.11683321E-04    3
 0.36424645E-08-0.47744272E-12 0.54548279E+04 0.19708423E+02                   4
C3H6                    C   3H   6O   0N   0G      300.     5000.   1400.      1
 0.80159596E+01 0.13702363E-01-0.46624973E-05 0.72125440E-09-0.41737013E-13    2
-0.18782127E+04-0.20016067E+02 0.39461544E+00 0.28910766E-01-0.15488681E-04    3
 0.38881421E-08-0.33789035E-12 0.10668816E+04 0.21900374E+02                   4
_1.3C4H6                C   4H   6O   0N   0G      300.     5000.   1400.      1
 0.11163379E+02 0.13716397E-01-0.46971578E-05 0.72969384E-09-0.42348620E-13    2
 0.77903977E+04-0.36984795E+02-0.14309512E+01 0.47870606E-01-0.41544680E-04    3
 0.19154955E-07-0.35715851E-11 0.11755131E+05 0.29082583E+02                   4
_1C4H8                  C   4H   8O   0N   0G      300.     5000.   1400.      1
 0.11350867E+02 0.18061788E-01-0.61609303E-05 0.95465296E-09-0.55308964E-13    2
-0.59787104E+04-0.36436944E+02-0.83137209E+00 0.45258098E-01-0.29365856E-04    3
 0.10022044E-07-0.14319168E-11-0.15787504E+04 0.29508424E+02                   4
_2C4H8                  C   4H   8O   0N   0G      300.     5000.   1400.      1
 0.10786438E+02 0.18462919E-01-0.62828949E-05 0.97205219E-09-0.56257917E-13    2
-0.73379372E+04-0.34489276E+02 0.66921360E+00 0.37683994E-01-0.18568968E-04    3
 0.36957106E-08-0.10309521E-12-0.33381934E+04 0.21486817E+02                   4
IC4H8                   C   4H   8O   0N   0G      300.     5000.   1400.      1
 0.11225833E+02 0.18179580E-01-0.62034859E-05 0.96144446E-09-0.55708806E-13    2
-0.76998378E+04-0.37330670E+02 0.93843317E+00 0.39054729E-01-0.21643715E-04    3
 0.58726708E-08-0.61443548E-12-0.37481789E+04 0.19144299E+02                   4
_1.3C5DIOL              C   5H   8O   0N   0G      300.     5000.   1400.      1
 0.13780103E+02 0.18462158E-01-0.61909456E-05 0.94842814E-09-0.54515702E-13    2
 0.24699067E+04-0.49034812E+02-0.14846316E+01 0.58145563E-01-0.46835504E-04    3
 0.20233276E-07-0.35802631E-11 0.73983191E+04 0.31568219E+02                   4
_1.4C5DIOL              C   5H   8O   0N   0G      300.     5000.   1400.      1
 0.14276862E+02 0.18815901E-01-0.65765921E-05 0.10359390E-08-0.60712238E-13    2
 0.53934673E+04-0.53005798E+02-0.17538747E+01 0.54837961E-01-0.37839019E-04    3
 0.13635453E-07-0.20622153E-11 0.11181998E+05 0.33728747E+02                   4
ISOPRENE                C   5H   8O   0N   0G      300.     5000.   1400.      1
 0.13313513E+02 0.18722902E-01-0.63434175E-05 0.97863277E-09-0.56530362E-13    2
 0.40978243E+04-0.45360838E+02 0.11095197E+01 0.44965087E-01-0.27359066E-04    3
 0.84382698E-08-0.10480348E-11 0.85906892E+04 0.21033121E+02                   4
_1C5H10                 C   5H  10O   0N   0G      300.     5000.   1400.      1
 0.14585154E+02 0.22407247E-01-0.76334802E-05 0.11818897E-08-0.68438514E-13    2
-0.10089820E+05-0.52368394E+02-0.10622348E+01 0.57421829E-01-0.37448689E-04    3
 0.12736499E-07-0.17960979E-11-0.44654667E+04 0.32273979E+02                   4
_2C5H10                 C   5H  10O   0N   0G      300.     5000.   1400.      1
 0.14110927E+02 0.22834827E-01-0.77862684E-05 0.12062749E-08-0.69879598E-13    2
-0.11433651E+05-0.50160116E+02-0.54156055E+00 0.53962992E-01-0.32350874E-04    3
 0.97741604E-08-0.11853467E-11-0.59860617E+04 0.29714275E+02                   4
_2M-1C4H8               C   5H  10O   0N   0G      300.     5000.   1400.      1
 0.14561409E+02 0.22537054E-01-0.77010006E-05 0.11946787E-08-0.69270481E-13    2
-0.11800452E+05-0.53065196E+02-0.27663060E+00 0.55353928E-01-0.35449962E-04    3
 0.11962685E-07-0.16987824E-11-0.63954730E+04 0.27391158E+02                   4
_3M-1C4H8               C   5H  10O   0N   0G      300.     5000.   1400.      1
 0.14649191E+02 0.22542206E-01-0.77205300E-05 0.11995860E-08-0.69631774E-13    2
-0.11165233E+05-0.54225229E+02-0.18368560E+01 0.60770947E-01-0.42159258E-04    3
 0.15610397E-07-0.24314277E-11-0.53486428E+04 0.34520354E+02                   4
_2M-2C4H8               C   5H  10O   0N   0G      300.     5000.   1400.      1
 0.13994544E+02 0.22944658E-01-0.78259415E-05 0.12126023E-08-0.70251846E-13    2
-0.13157694E+05-0.50408385E+02 0.12027415E+01 0.47887211E-01-0.24814477E-04    3
 0.57351436E-08-0.39126668E-12-0.81521233E+04 0.20159258E+02                   4
NDIOL-C06               C   6H  10O   0N   0G      300.     5000.   1400.      1
 0.16718619E+02 0.23017941E-01-0.78186631E-05 0.12083182E-08-0.69882612E-13    2
 0.17430663E+04-0.61956593E+02-0.18001353E+01 0.67111188E-01-0.48405449E-04    3
 0.18405573E-07-0.28936781E-11 0.81024952E+04 0.37224205E+02                   4
NOLE-C06                C   6H  12O   0N   0G      300.     5000.   1400.      1
 0.17833753E+02 0.26737766E-01-0.91003677E-05 0.14081977E-08-0.81512424E-13    2
-0.14206286E+05-0.68381885E+02-0.13527521E+01 0.69865543E-01-0.45940802E-04    3
 0.15696734E-07-0.22129618E-11-0.73436862E+04 0.35312069E+02                   4
_2OLE-C06               C   6H  12O   0N   0G      300.     5000.   1400.      1
 0.17361615E+02 0.27163490E-01-0.92524944E-05 0.14324772E-08-0.82947252E-13    2
-0.15550955E+05-0.66185734E+02-0.83781052E+00 0.66433471E-01-0.40880177E-04    3
 0.12755801E-07-0.16066516E-11-0.88634733E+04 0.32778520E+02                   4
CPTOL                   C   5H   8O   0N   0G      300.     5000.   1400.      1
 0.12752588E+02 0.20160295E-01-0.68656433E-05 0.10630369E-08-0.61566305E-13    2
-0.30981015E+04-0.48550146E+02-0.54461526E+01 0.63315462E-01-0.45935151E-04    3
 0.17122973E-07-0.25890747E-11 0.31183963E+04 0.48894486E+02                   4
ME-CPTOL                C   6H  10O   0N   0G      300.     5000.   1400.      1
 0.15952110E+02 0.24651025E-01-0.84120353E-05 0.13041249E-08-0.75591901E-13    2
-0.89144665E+04-0.64414476E+02-0.49171282E+01 0.73557920E-01-0.52281114E-04    3
 0.19247057E-07-0.28998302E-11-0.16952042E+04 0.47589681E+02                   4
CHXOL                   C   6H  10O   0N   0G      300.     5000.   1400.      1
 0.16081195E+02 0.25366998E-01-0.87476028E-05 0.13657265E-08-0.79551847E-13    2
-0.95282932E+04-0.67977163E+02-0.64270247E+01 0.76972174E-01-0.53739277E-04    3
 0.19154857E-07-0.27772952E-11-0.16203119E+04 0.53241898E+02                   4
CPD                     C   5H   6O   0N   0G      300.     5000.   1400.      1
 0.11396288E+02 0.17813238E-01-0.69859911E-05 0.11976606E-08-0.74659782E-13    2
 0.10510737E+05-0.40953249E+02 0.38855841E+01-0.95495946E-02 0.12102582E-03    3
-0.14269893E-06 0.50683662E-10 0.14854736E+05 0.95617306E+01                   4
ME-CPD                  C   6H   8O   0N   0G      300.     5000.   1400.      1
 0.83991204E+01 0.31531843E-01-0.13180500E-04 0.25534853E-08-0.18604353E-12    2
 0.75382165E+04-0.21148537E+02 0.11662926E+01 0.24036815E-01 0.74020525E-04    3
-0.12439811E-06 0.54535544E-10 0.10254252E+05 0.21354795E+02                   4
CHXDI                   C   6H   8O   0N   0G      300.     5000.   1400.      1
 0.15362526E+02 0.20867511E-01-0.71920305E-05 0.11225163E-08-0.65373338E-13    2
 0.46211828E+04-0.62670391E+02-0.58133748E+01 0.72224843E-01-0.55216174E-04    3
 0.21697532E-07-0.34630456E-11 0.11757801E+05 0.50339894E+02                   4
ME-CHXDI                C   7H  10O   0N   0G      300.     5000.   1400.      1
 0.10092058E+02 0.37899979E-01-0.15450966E-04 0.29444993E-08-0.21207797E-12    2
 0.26963619E+04-0.30553290E+02 0.12577458E+01 0.33067174E-01 0.64654377E-04    3
-0.10871030E-06 0.45047515E-10 0.61080414E+04 0.21156460E+02                   4
STYRENE                 C   8H   8O   0N   0G      300.     5000.   1400.      1
 0.19224932E+02 0.22283260E-01-0.76859529E-05 0.12001988E-08-0.69920402E-13    2
 0.81491101E+04-0.79807220E+02-0.45674136E+01 0.82107690E-01-0.66282311E-04    3
 0.27656439E-07-0.46789802E-11 0.15975746E+05 0.46448079E+02                   4
ALL-BENZENE             C   9H  10O   0N   0G      300.     5000.   1400.      1
 0.18394126E+02 0.31091012E-01-0.10907948E-04 0.17373880E-08-0.10324065E-12    2
 0.48940747E+04-0.72713107E+02 0.30194903E+01 0.32356618E-01 0.78445565E-04    3
-0.11927241E-06 0.45662085E-10 0.10950788E+05 0.16444021E+02                   4
AROL-C10                C  10H  12O   0N   0G      300.     5000.   1400.      1
 0.21919662E+02 0.34994523E-01-0.12177198E-04 0.19286210E-08-0.11412701E-12    2
 0.19753711E+04-0.90422392E+02 0.27214880E+01 0.34850818E-01 0.10459569E-03    3
-0.15439910E-06 0.58782588E-10 0.96236870E+04 0.21336215E+02                   4
AROL-C11                C  11H  14O   0N   0G      300.     5000.   1400.      1
 0.23511457E+02 0.41385521E-01-0.14576027E-04 0.23290730E-08-0.13872831E-12    2
-0.28457545E+04-0.97266284E+02 0.27095257E+01 0.45063135E-01 0.10039446E-03    3
-0.15544295E-06 0.59787140E-10 0.52517081E+04 0.22874721E+02                   4
ME-INDENE               C  10H  10O   0N   0G      300.     5000.   1400.      1
 0.25682470E+02 0.43348092E-01-0.15375862E-04 0.24738518E-08-0.14815945E-12    2
-0.20125514E+05-0.14092762E+03 0.26654613E+01 0.62567984E-01 0.66158712E-04    3
-0.12619238E-06 0.50780629E-10-0.11915842E+05-0.11762383E+02                   4
NAROL-C11               C  11H  12O   0N   0G      300.     5000.   1400.      1
 0.25268139E+02 0.34200979E-01-0.11618290E-04 0.18080532E-08-0.10566269E-12    2
 0.88959431E+04-0.10857160E+03 0.23431432E+01 0.53345074E-01 0.69587217E-04    3
-0.12634069E-06 0.50618481E-10 0.17072746E+05 0.20077025E+02                   4
NAROL-C12               C  12H  14O   0N   0G      300.     5000.   1400.      1
 0.26424329E+02 0.41369842E-01-0.14475436E-04 0.23021755E-08-0.13668246E-12    2
 0.88935867E+04-0.11029223E+03 0.24565367E+01 0.59224791E-01 0.76936052E-04    3
-0.13822031E-06 0.55087169E-10 0.17549260E+05 0.24745588E+02                   4
NAROL-C13               C  13H  16O   0N   0G      300.     5000.   1400.      1
 0.33331443E+02 0.59336487E-01-0.21111303E-04 0.34045474E-08-0.20426795E-12    2
-0.30950629E+05-0.17691888E+03 0.22442673E+01 0.94339036E-01 0.61744079E-04    3
-0.14297185E-06 0.59401380E-10-0.20310220E+05-0.47157946E+01                   4
_1.2C4H6                C   4H   6O   0N   0G      300.     5000.   1400.      1
 0.10503968E+02 0.14124263E-01-0.48063722E-05 0.74363499E-09-0.43040037E-13    2
 0.14423960E+05-0.31624707E+02 0.11314205E+01 0.34493916E-01-0.21441829E-04    3
 0.68419588E-08-0.89424406E-12 0.17857948E+05 0.19296968E+02                   4
FULVENE                 C   6H   6O   0N   0G      300.     5000.   1400.      1
 0.14670289E+02 0.16327553E-01-0.56174764E-05 0.87573772E-09-0.50959943E-13    2
 0.19019944E+05-0.57516039E+02-0.45272191E+01 0.66711983E-01-0.57242780E-04    3
 0.25185970E-07-0.44402773E-11 0.25113472E+05 0.43589417E+02                   4
C4H4                    C   4H   4O   0N   0G      300.     5000.   1400.      1
 0.11236776E+02 0.88236417E-02-0.30715320E-05 0.48268135E-09-0.28246765E-13    2
 0.29256687E+05-0.35733637E+02-0.29996814E-01 0.37924232E-01-0.32506122E-04    3
 0.14232249E-07-0.25032396E-11 0.32891578E+05 0.23791223E+02                   4
IOLE-C06                C   6H  12O   0N   0G      300.     5000.   1400.      1